Circuit: * C:\Users\manojg\Dropbox\EMI_Sense_2\Spice_models\3-Phase Model\Draft2.asc

.OP point found by inspection.

Date: Sun Dec 28 12:42:59 2014
Total elapsed time: 0.390 seconds.

tnom = 27
temp = 27
method = modified trap
totiter = 142012
traniter = 142012
tranpoints = 71007
accept = 42811
rejected = 28196
matrix size = 7
fillins = 1
solver = Normal
Matrix Compiler1: 322 bytes object code size  0.2/0.1/[0.1]
Matrix Compiler2: 495 bytes object code size  0.1/0.2/[0.1]


