Circuit: * C:\Users\manojg\Dropbox\EMI_Sense_2\Spice_models\3-Phase Model\Draft1.asc

.OP point found by inspection.

Date: Sun Dec 28 12:20:30 2014
Total elapsed time: 0.400 seconds.

tnom = 27
temp = 27
method = modified trap
totiter = 142012
traniter = 142012
tranpoints = 71007
accept = 42811
rejected = 28196
matrix size = 9
fillins = 1
solver = Normal
Matrix Compiler1: 354 bytes object code size  0.3/0.2/[0.1]
Matrix Compiler2: 633 bytes object code size  0.1/0.4/[0.1]


