Circuit: * C:\Users\manojg\Dropbox\EMI_Sense_2\Spice_models\3-Phase Model\Draft3.asc

.OP point found by inspection.

Date: Tue Dec 30 06:24:48 2014
Total elapsed time: 2.060 seconds.

tnom = 27
temp = 27
method = modified trap
totiter = 272012
traniter = 272012
tranpoints = 136007
accept = 81611
rejected = 54396
matrix size = 6
fillins = 1
solver = Normal
Matrix Compiler1: 272 bytes object code size  0.1/0.1/[0.1]
Matrix Compiler2: 422 bytes object code size  0.1/0.2/[0.0]


