Circuit: * C:\Users\manojg\Dropbox\EMI_Sense_2\Spice_models\AC Power Flow ver 1.2.asc

WARNING: Less than two connections to node OUT2+.  This node is used by L2.
WARNING: Less than two connections to node OUT2-.  This node is used by L3.
.OP point found by inspection.

Date: Mon Nov 24 03:31:34 2014
Total elapsed time: 0.070 seconds.

tnom = 27
temp = 27
method = modified trap
totiter = 3500
traniter = 3500
tranpoints = 1751
accept = 1360
rejected = 391
matrix size = 7
fillins = 2
solver = Normal
Matrix Compiler1: 544 bytes object code size  0.2/0.3/[0.1]
Matrix Compiler2: off  [0.1]/0.2/0.1


