Circuit: * C:\Users\manojg\Dropbox\EMI_Sense_2\Spice_models\new_spice models\AC Power Flow ver 1.4.asc

WARNING: Node IN2- is floating.

Direct Newton iteration for .op point succeeded.

Date: Sun Dec 14 16:29:38 2014
Total elapsed time: 5.084 seconds.

tnom = 27
temp = 27
method = modified trap
totiter = 618467
traniter = 618459
tranpoints = 268178
accept = 227134
rejected = 41044
matrix size = 18
fillins = 10
solver = Normal
Matrix Compiler1: 1.51 KB object code size  0.7/0.5/[0.2]
Matrix Compiler2: 1.39 KB object code size  0.3/0.7/[0.3]


