Circuit: * C:\Users\Astha Gupta\Dropbox\EMI_Sense_2\Spice_models\Ver1.0\AC Power Flow ver 1.4.asc

WARNING: Node IN2- is floating.

Direct Newton iteration for .op point succeeded.

Date: Mon Dec 15 10:54:08 2014
Total elapsed time: 4.153 seconds.

tnom = 27
temp = 27
method = modified trap
totiter = 618467
traniter = 618459
tranpoints = 268178
accept = 227134
rejected = 41044
matrix size = 18
fillins = 10
solver = Normal
Matrix Compiler1: 1.51 KB object code size  0.6/0.4/[0.2]
Matrix Compiler2: off  [0.2]/0.5/0.4


