Circuit: * C:\Users\Astha Gupta\Dropbox\EMI_Sense_2\Spice_models\Ver1.0\AC Power Flow ver2.5 (CM-DM Model Appl2) .asc

Direct Newton iteration for .op point succeeded.
Heightened Def Con from 6.25143e-005 to 6.2516e-005

Date: Mon Dec 15 11:02:28 2014
Total elapsed time: 3.623 seconds.

tnom = 27
temp = 27
method = modified trap
totiter = 371795
traniter = 371787
tranpoints = 167355
accept = 150910
rejected = 16446
matrix size = 12
fillins = 0
solver = Normal
Matrix Compiler1: 302 bytes object code size  0.3/0.2/[0.1]
Matrix Compiler2: off  [0.2]/0.3/0.2


