Circuit: * C:\Users\manojg\Dropbox\EMI_Sense_2\Spice_models\AC Power Flow ver 1.1.asc

.OP point found by inspection.

Date: Mon Nov 24 02:56:01 2014
Total elapsed time: 0.228 seconds.

tnom = 27
temp = 27
method = modified trap
totiter = 7906
traniter = 7906
tranpoints = 3954
accept = 2641
rejected = 1313
matrix size = 23
fillins = 4
solver = Normal
Matrix Compiler1: 1.71 KB object code size  0.8/0.9/[0.2]
Matrix Compiler2: 1.84 KB object code size  0.3/0.7/[0.1]


