Circuit: * C:\Users\manojg\Dropbox\EMI_Sense_2\Spice_models\AC Power Flow ver2.5 (CM-DM Model Appl2) .asc

Direct Newton iteration for .op point succeeded.
Heightened Def Con from 6.25143e-005 to 6.2516e-005

Date: Sat Nov 29 10:54:50 2014
Total elapsed time: 2.466 seconds.

tnom = 27
temp = 27
method = modified trap
totiter = 371795
traniter = 371787
tranpoints = 167355
accept = 150910
rejected = 16446
matrix size = 12
fillins = 0
solver = Normal
Matrix Compiler1: 302 bytes object code size  0.2/0.2/[0.1]
Matrix Compiler2: 636 bytes object code size  0.2/0.3/[0.1]


