Circuit: * C:\Users\manoj\Dropbox\EMI_Sense_2\Spice_models\Draft2.asc


Date: Mon Oct 06 19:38:43 2014
Total elapsed time: 0.103 seconds.

tnom = 27
temp = 27
method = trap
totiter = 0
traniter = 0
tranpoints = 0
accept = 0
rejected = 0
matrix size = 4
fillins = 0
solver = Normal

